Test system/caseSPPS_netMIN.m
function mpc = caseSPPS_netMIN
%It is the operating condition that the system net loads reach valley.
%% MATPOWER Case Format : Version 1
mpc.version = '1';

%%-----  Power Flow Data  -----%%
%% system MVA base
mpc.baseMVA = 1000;

%% bus data
mpc.bus = [
101	1	2075.61	435.99	0	0	1	0.9903	-11.6098	500	1	1.05	0.95
102	1	800.59	160.16	0	0	1	0.9891	-9.4378	500	1	1.05	0.95
103	1	877.55	219.72	0	0	1	0.9905	-8.9831	500	1	1.05	0.95
104	1	1008.15	233.41	0	0	1	0.9951	-10.2401	500	1	1.05	0.95
105	1	415.12	104.58	0	0	1	0.9906	-12.2393	500	1	1.05	0.95
106	1	355.82	71.5	0	0	1	0.9901	-14.3936	220	1	1.05	0.95
107	1	177.91	38.37	0	0	1	0.9905	-14.5879	220	1	1.05	0.95
108	1	118.61	25.47	0	0	1	0.9936	-12.6643	220	1	1.05	0.95
109	1	177.91	47.42	0	0	1	0.9906	-12.9743	220	1	1.05	0.95
201	1	176.1	46.19	0	0	1	0.9952	-7.9343	500	1	1.05	0.95
202	1	319.18	79.76	0	0	1	0.9961	-6.3574	220	1	1.05	0.95
203	1	253.14	60.47	0	0	1	0.9981	-5.673	220	1	1.05	0.95
204	1	352.2	72.53	0	0	1	0.993	-6.0443	220	1	1.05	0.95
301	1	858.17	183.64	0	0	1	0.9973	-8.4917	500	1	1.05	0.95
302	1	245.19	64.96	0	0	1	1.0018	-7.9292	500	1	1.05	0.95
303	1	350.27	97.72	0	0	1	0.9891	-10.095	220	1	1.05	0.95
304	1	297.73	62.45	0	0	1	0.9914	-10.0325	220	1	1.05	0.95
401	1	731.1	202.72	0	0	1	0.9901	-7.5625	500	1	1.05	0.95
402	1	731.1	182.88	0	0	1	0.9938	-5.6194	500	1	1.05	0.95
403	1	731.1	152.23	0	0	1	0.9944	-5.8033	500	1	1.05	0.95
404	1	692.62	155.8	0	0	1	0.9941	-5.138	500	1	1.05	0.95
405	1	192.4	52.38	0	0	1	0.9979	-7.1622	220	1	1.05	0.95
406	1	76.96	18.62	0	0	1	0.9994	-7.7283	220	1	1.05	0.95
407	1	307.83	65.55	0	0	1	0.9932	-7.356	220	1	1.05	0.95
408	1	230.87	58.38	0	0	1	0.9961	-3.6373	220	1	1.05	0.95
501	1	644.75	172.29	0	0	1	1.0095	-0.0344	500	1	1.05	0.95
502	1	549.23	152.99	0	0	1	1.0107	0.1461	500	1	1.05	0.95
601	1	1466.73	354.95	0	0	1	1.0145	0.7229	500	1	1.05	0.95
602	1	366.68	81.7	0	0	1	1.0044	0.6467	220	1	1.05	0.95
701	1	529.09	109.53	0	0	1	0.9908	-9.4643	500	1	1.05	0.95
702	1	1418.91	324.24	0	0	1	0.9871	-9.866	500	1	1.05	0.95
703	1	168.35	33.84	0	0	1	0.9924	-8.7973	500	1	1.05	0.95
704	1	0	0	0	0	1	0.9923	-8.5327	800	1	1.05	0.95
705	1	216.44	57.21	0	0	1	1.0023	-4.746	220	1	1.05	0.95
706	1	72.15	19.61	0	0	1	1.0044	-5.1217	220	1	1.05	0.95
801	1	955.41	221.21	0	0	1	0.9946	-5.9355	500	1	1.05	0.95
802	1	290.04	71.13	0	0	1	0.9989	-4.2485	500	1	1.05	0.95
803	1	170.61	43.67	0	0	1	0.9934	-6.4718	220	1	1.05	0.95
804	1	290.04	65.33	0	0	1	0.9965	-5.2958	220	1	1.05	0.95
901	1	1039.79	267.12	0	0	1	0.9892	-9.5769	500	1	1.05	0.95
902	1	267.37	61.09	0	0	1	0.9891	-10.6702	220	1	1.05	0.95
903	1	89.12	24.85	0	0	1	0.9991	-8.5694	220	1	1.05	0.95
904	1	89.12	23.38	0	0	1	1.0024	-8.0787	220	1	1.05	0.95
1001	1	934.22	188.52	0	0	1	1.0061	-6.7552	500	1	1.05	0.95
1002	1	115.47	24.35	0	0	1	1.0065	-8.1458	220	1	1.05	0.95
1101	1	288.82	74.56	0	0	1	0.9994	-8.0081	500	1	1.05	0.95
1102	1	505.43	130.35	0	0	1	0.9958	-6.7056	500	1	1.05	0.95
1103	1	577.64	143.68	0	0	1	0.9951	-6.2191	500	1	1.05	0.95
1104	1	54.15	14.2	0	0	1	1.0092	-4.6158	220	1	1.05	0.95
1105	1	126.36	29.3	0	0	1	0.9998	-4.8258	220	1	1.05	0.95
1106	1	144.41	33.91	0	0	1	1.0061	-3.5569	220	1	1.05	0.95
1107	1	54.15	12.15	0	0	1	1.0046	-4.0272	220	1	1.05	0.95
1108	1	54.15	12.36	0	0	1	1.0067	-3.1518	220	1	1.05	0.95
1201	3	1468.43	299.76	0	0	1	1.0134	0	500	1	1.05	0.95
1301	1	760.27	169.79	0	0	1	0.9979	-6.7668	500	1	1.05	0.95
1302	1	401.65	95.61	0	0	1	0.9954	-8.2089	220	1	1.05	0.95
1303	1	272.55	72.96	0	0	1	0.9925	-8.9353	220	1	1.05	0.95
1401	1	666.48	169.98	0	0	1	0.9841	-10.0221	500	1	1.05	0.95
1402	1	371.69	94.76	0	0	1	0.9876	-9.408	500	1	1.05	0.95
1403	1	76.9	16.99	0	0	1	0.9929	-12.6436	220	1	1.05	0.95
1404	1	243.58	59.1	0	0	1	1.0011	-6.1709	220	1	1.05	0.95
1501	2	0	0	0	0	1	0.9906	-8.6736	500	1	1.05	0.95
1502	2	0	0	0	0	1	0.992	-8.6632	500	1	1.05	0.95
1503	2	0	0	0	0	1	1.0127	1.3209	500	1	1.05	0.95
1504	2	0	0	0	0	1	1.0118	0.3324	500	1	1.05	0.95
1505	2	0	0	0	0	1	1.0196	1.4335	500	1	1.05	0.95
];

%% generator data
mpc.gen = [
101	140	60.89	175	-35	0.9895	500	1	350	140	0	0	0	0	0	0	0	0	0	0	0
101	140	60.89	175	-35	0.9895	500	1	350	140	0	0	0	0	0	0	0	0	0	0	0
101	70	24.14	67.5	-13.5	0.9895	500	1	135	70	0	0	0	0	0	0	0	0	0	0	0
101	70	24.14	67.5	-13.5	0.9895	500	1	135	70	0	0	0	0	0	0	0	0	0	0	0
101	75	26.8	75	-15	0.9895	500	1	150	75	0	0	0	0	0	0	0	0	0	0	0
101	75	26.8	75	-15	0.9895	500	1	150	75	0	0	0	0	0	0	0	0	0	0	0
1201	192.68	53.8	330	-66	1.0134	500	1	660	198	0	0	0	0	0	0	0	0	0	0	0
1201	198	53.8	330	-66	1.0134	500	1	660	198	0	0	0	0	0	0	0	0	0	0	0
1201	134	26.08	160	-32	1.0134	500	1	320	134	0	0	0	0	0	0	0	0	0	0	0
1201	134	26.08	160	-32	1.0134	500	1	320	134	0	0	0	0	0	0	0	0	0	0	0
1201	35	5.71	35	-7	1.0134	500	1	70	35	0	0	0	0	0	0	0	0	0	0	0
1201	35	5.71	35	-7	1.0134	500	1	70	35	0	0	0	0	0	0	0	0	0	0	0
1201	350	81.51	500	-100	1.0134	500	1	1000	350	0	0	0	0	0	0	0	0	0	0	0
1201	350	81.51	500	-100	1.0134	500	1	1000	350	0	0	0	0	0	0	0	0	0	0	0
104	140	59.63	175	-35	0.9942	500	1	350	140	0	0	0	0	0	0	0	0	0	0	0
104	140	59.63	175	-35	0.9942	500	1	350	140	0	0	0	0	0	0	0	0	0	0	0
1504	240	59.91	330	-66	1.0118	500	1	660	240	0	0	0	0	0	0	0	0	0	0	0
1504	240	59.91	330	-66	1.0118	500	1	660	240	0	0	0	0	0	0	0	0	0	0	0
1504	235	57.19	315	-63	1.0118	500	1	630	235	0	0	0	0	0	0	0	0	0	0	0
1504	235	57.19	315	-63	1.0118	500	1	630	235	0	0	0	0	0	0	0	0	0	0	0
103	140	58.03	175	-35	0.9896	500	1	350	140	0	0	0	0	0	0	0	0	0	0	0
103	140	58.03	175	-35	0.9896	500	1	350	140	0	0	0	0	0	0	0	0	0	0	0
103	140	58.03	175	-35	0.9896	500	1	350	140	0	0	0	0	0	0	0	0	0	0	0
703	140	52.09	175	-35	0.9911	500	1	350	140	0	0	0	0	0	0	0	0	0	0	0
703	140	52.09	175	-35	0.9911	500	1	350	140	0	0	0	0	0	0	0	0	0	0	0
304	35	8.9	25	-5	0.9903	500	1	50	35	0	0	0	0	0	0	0	0	0	0	0
304	35	8.9	25	-5	0.9903	500	1	50	35	0	0	0	0	0	0	0	0	0	0	0
304	35	8.9	25	-5	0.9903	500	1	50	35	0	0	0	0	0	0	0	0	0	0	0
1001	140	47.47	175	-35	1.0048	500	1	350	140	0	0	0	0	0	0	0	0	0	0	0
1001	140	47.47	175	-35	1.0048	500	1	350	140	0	0	0	0	0	0	0	0	0	0	0
1301	260.5	79.79	300	-60	0.9967	500	1	600	260.5	0	0	0	0	0	0	0	0	0	0	0
1301	278	79.79	300	-60	0.9967	500	1	600	278	0	0	0	0	0	0	0	0	0	0	0
302	115	52.19	165	-33	1.0007	500	1	330	115	0	0	0	0	0	0	0	0	0	0	0
302	210	85.1	335	-67	1.0007	500	1	670	210	0	0	0	0	0	0	0	0	0	0	0
302	115	52.19	165	-33	1.0007	500	1	330	115	0	0	0	0	0	0	0	0	0	0	0
1001	418	56.85	522.5	-104.5	1.0048	500	1	1045	418	0	0	0	0	0	0	0	0	0	0	0
1001	418	56.85	522.5	-104.5	1.0048	500	1	1045	418	0	0	0	0	0	0	0	0	0	0	0
601	75	24.59	75	-15	1.0119	500	1	150	75	0	0	0	0	0	0	0	0	0	0	0
601	75	24.59	75	-15	1.0119	500	1	150	75	0	0	0	0	0	0	0	0	0	0	0
104	144	61.18	180	-36	0.9942	500	1	360	144	0	0	0	0	0	0	0	0	0	0	0
104	75	27.56	77.5	-15.5	0.9942	500	1	155	75	0	0	0	0	0	0	0	0	0	0	0
104	75	27.56	77.5	-15.5	0.9942	500	1	155	75	0	0	0	0	0	0	0	0	0	0	0
104	75	27.56	77.5	-15.5	0.9942	500	1	155	75	0	0	0	0	0	0	0	0	0	0	0
301	150	47.84	150	-30	0.9962	500	1	300	150	0	0	0	0	0	0	0	0	0	0	0
301	150	47.84	150	-30	0.9962	500	1	300	150	0	0	0	0	0	0	0	0	0	0	0
301	144	55.69	180	-36	0.9962	500	1	360	144	0	0	0	0	0	0	0	0	0	0	0
301	144	55.69	180	-36	0.9962	500	1	360	144	0	0	0	0	0	0	0	0	0	0	0
303	28	7.18	20	-4	0.988	500	1	40	28	0	0	0	0	0	0	0	0	0	0	0
408	35	8.5	25	-5	0.9947	500	1	50	35	0	0	0	0	0	0	0	0	0	0	0
403	290	88.73	330	-66	0.9931	500	1	660	290	0	0	0	0	0	0	0	0	0	0	0
403	290	88.73	330	-66	0.9931	500	1	660	290	0	0	0	0	0	0	0	0	0	0	0
103	15	5.48	15	-3	0.9896	500	1	30	15	0	0	0	0	0	0	0	0	0	0	0
103	15	5.48	15	-3	0.9896	500	1	30	15	0	0	0	0	0	0	0	0	0	0	0
103	15	5.48	15	-3	0.9896	500	1	30	15	0	0	0	0	0	0	0	0	0	0	0
1505	350	112.03	525	-105	1.0196	500	1	1050	350	0	0	0	0	0	0	0	0	0	0	0
1505	350	112.03	525	-105	1.0196	500	1	1050	350	0	0	0	0	0	0	0	0	0	0	0
1505	240	67.22	315	-63	1.0196	500	1	630	240	0	0	0	0	0	0	0	0	0	0	0
1505	240	67.22	315	-63	1.0196	500	1	630	240	0	0	0	0	0	0	0	0	0	0	0
601	198	65.98	330	-66	1.0119	500	1	660	198	0	0	0	0	0	0	0	0	0	0	0
601	198	65.98	330	-66	1.0119	500	1	660	198	0	0	0	0	0	0	0	0	0	0	0
101	75	26.8	75	-15	0.9895	500	1	150	75	0	0	0	0	0	0	0	0	0	0	0
101	75	26.8	75	-15	0.9895	500	1	150	75	0	0	0	0	0	0	0	0	0	0	0
901	56	14.09	40	-8	0.988	500	1	80	56	0	0	0	0	0	0	0	0	0	0	0
101	70	24.14	67.5	-13.5	0.9895	500	1	135	70	0	0	0	0	0	0	0	0	0	0	0
101	70	24.14	67.5	-13.5	0.9895	500	1	135	70	0	0	0	0	0	0	0	0	0	0	0
1102	135	38.18	150	-30	0.9936	500	1	300	135	0	0	0	0	0	0	0	0	0	0	0
1102	135	38.18	150	-30	0.9936	500	1	300	135	0	0	0	0	0	0	0	0	0	0	0
804	15	5.16	15	-3	0.9953	500	1	30	15	0	0	0	0	0	0	0	0	0	0	0
804	15	5.16	15	-3	0.9953	500	1	30	15	0	0	0	0	0	0	0	0	0	0	0
802	22	5.87	16.4	-3.28	0.9977	500	1	32.8	22	0	0	0	0	0	0	0	0	0	0	0
802	21	5.4	15	-3	0.9977	500	1	30	21	0	0	0	0	0	0	0	0	0	0	0
601	52.5	13.26	37.5	-7.5	1.0119	500	1	75	52.5	0	0	0	0	0	0	0	0	0	0	0
601	52.5	13.26	37.5	-7.5	1.0119	500	1	75	52.5	0	0	0	0	0	0	0	0	0	0	0
901	70	17.53	50	-10	0.988	500	1	100	70	0	0	0	0	0	0	0	0	0	0	0
901	56	14.09	40	-8	0.988	500	1	80	56	0	0	0	0	0	0	0	0	0	0	0
501	77	18.94	55	-11	1.009	500	1	110	77	0	0	0	0	0	0	0	0	0	0	0
501	77	18.94	55	-11	1.009	500	1	110	77	0	0	0	0	0	0	0	0	0	0	0
501	101.5	24.28	72.5	-14.5	1.009	500	1	145	101.5	0	0	0	0	0	0	0	0	0	0	0
501	101.5	24.28	72.5	-14.5	1.009	500	1	145	101.5	0	0	0	0	0	0	0	0	0	0	0
501	101.5	24.28	72.5	-14.5	1.009	500	1	145	101.5	0	0	0	0	0	0	0	0	0	0	0
501	94.5	22.78	67.5	-13.5	1.009	500	1	135	94.5	0	0	0	0	0	0	0	0	0	0	0
502	94.5	22.43	67.5	-13.5	1.0105	500	1	135	94.5	0	0	0	0	0	0	0	0	0	0	0
502	94.5	22.43	67.5	-13.5	1.0105	500	1	135	94.5	0	0	0	0	0	0	0	0	0	0	0
601	52.5	13.26	37.5	-7.5	1.0119	500	1	75	52.5	0	0	0	0	0	0	0	0	0	0	0
601	52.5	13.26	37.5	-7.5	1.0119	500	1	75	52.5	0	0	0	0	0	0	0	0	0	0	0
1301	70	17.12	50	-10	0.9967	500	1	100	70	0	0	0	0	0	0	0	0	0	0	0
1102	49	11.93	35	-7	0.9936	500	1	70	49	0	0	0	0	0	0	0	0	0	0	0
1102	49	11.93	35	-7	0.9936	500	1	70	49	0	0	0	0	0	0	0	0	0	0	0
1102	49	11.93	35	-7	0.9936	500	1	70	49	0	0	0	0	0	0	0	0	0	0	0
702	94.5	23.2	67.5	-13.5	0.9861	500	1	135	94.5	0	0	0	0	0	0	0	0	0	0	0
402	42	10.89	30	-6	0.9929	500	1	60	42	0	0	0	0	0	0	0	0	0	0	0
402	42	10.89	30	-6	0.9929	500	1	60	42	0	0	0	0	0	0	0	0	0	0	0
1102	49	11.93	35	-7	0.9936	500	1	70	49	0	0	0	0	0	0	0	0	0	0	0
1102	49	11.93	35	-7	0.9936	500	1	70	49	0	0	0	0	0	0	0	0	0	0	0
1102	49	11.93	35	-7	0.9936	500	1	70	49	0	0	0	0	0	0	0	0	0	0	0
1201	70	8.15	50	-10	1.0134	500	1	100	70	0	0	0	0	0	0	0	0	0	0	0
1201	56	6.52	40	-8	1.0134	500	1	80	56	0	0	0	0	0	0	0	0	0	0	0
1201	56	6.52	40	-8	1.0134	500	1	80	56	0	0	0	0	0	0	0	0	0	0	0
1201	21	2.45	15	-3	1.0134	500	1	30	21	0	0	0	0	0	0	0	0	0	0	0
801	21	5.11	15	-3	0.9934	500	1	30	21	0	0	0	0	0	0	0	0	0	0	0
203	21	5.4	15	-3	0.9972	500	1	30	21	0	0	0	0	0	0	0	0	0	0	0
203	21	5.4	15	-3	0.9972	500	1	30	21	0	0	0	0	0	0	0	0	0	0	0
204	21	5.37	15	-3	0.9921	500	1	30	21	0	0	0	0	0	0	0	0	0	0	0
204	28	7.09	20	-4	0.9921	500	1	40	28	0	0	0	0	0	0	0	0	0	0	0
1301	21	5.35	15	-3	0.9967	500	1	30	21	0	0	0	0	0	0	0	0	0	0	0
1102	24.5	6.16	17.5	-3.5	0.9936	500	1	35	24.5	0	0	0	0	0	0	0	0	0	0	0
301	21	5.41	15	-3	0.9962	500	1	30	21	0	0	0	0	0	0	0	0	0	0	0
701	21	5.43	15	-3	0.9897	500	1	30	21	0	0	0	0	0	0	0	0	0	0	0
701	21	5.43	15	-3	0.9897	500	1	30	21	0	0	0	0	0	0	0	0	0	0	0
103	21	5.48	15	-3	0.9896	500	1	30	21	0	0	0	0	0	0	0	0	0	0	0
401	21	5.42	15	-3	0.9883	500	1	30	21	0	0	0	0	0	0	0	0	0	0	0
401	21	5.42	15	-3	0.9883	500	1	30	21	0	0	0	0	0	0	0	0	0	0	0
202	21	5.42	15	-3	0.9951	500	1	30	21	0	0	0	0	0	0	0	0	0	0	0
601	28	7.44	20	-4	1.0119	500	1	40	28	0	0	0	0	0	0	0	0	0	0	0
901	21	5.38	15	-3	0.988	500	1	30	21	0	0	0	0	0	0	0	0	0	0	0
901	21	5.38	15	-3	0.988	500	1	30	21	0	0	0	0	0	0	0	0	0	0	0
1101	21	5.32	15	-3	0.9981	500	1	30	21	0	0	0	0	0	0	0	0	0	0	0
1401	28	7.23	20	-4	0.9836	500	1	40	28	0	0	0	0	0	0	0	0	0	0	0
801	8.4	2.2	6	-1.2	0.9934	500	1	12	8.4	0	0	0	0	0	0	0	0	0	0	0
801	8.4	2.2	6	-1.2	0.9934	500	1	12	8.4	0	0	0	0	0	0	0	0	0	0	0
202	8.4	2.23	6	-1.2	0.9951	500	1	12	8.4	0	0	0	0	0	0	0	0	0	0	0
1404	6.3	1.66	4.5	-0.9	0.9999	500	1	9	6.3	0	0	0	0	0	0	0	0	0	0	0
502	6.3	1.82	4.5	-0.9	1.0105	500	1	9	6.3	0	0	0	0	0	0	0	0	0	0	0
502	8.4	2.38	6	-1.2	1.0105	500	1	12	8.4	0	0	0	0	0	0	0	0	0	0	0
1302	10.5	2.78	7.5	-1.5	0.9942	500	1	15	10.5	0	0	0	0	0	0	0	0	0	0	0
408	17.5	4.41	12.5	-2.5	0.9947	500	1	25	17.5	0	0	0	0	0	0	0	0	0	0	0
104	10.5	2.78	7.5	-1.5	0.9942	500	1	15	10.5	0	0	0	0	0	0	0	0	0	0	0
703	6.3	1.7	4.5	-0.9	0.9911	500	1	9	6.3	0	0	0	0	0	0	0	0	0	0	0
601	4.2	1.28	3	-0.6	1.0119	500	1	6	4.2	0	0	0	0	0	0	0	0	0	0	0
601	8.4	2.44	6	-1.2	1.0119	500	1	12	8.4	0	0	0	0	0	0	0	0	0	0	0
801	10.5	2.69	7.5	-1.5	0.9934	500	1	15	10.5	0	0	0	0	0	0	0	0	0	0	0
801	10.5	2.69	7.5	-1.5	0.9934	500	1	15	10.5	0	0	0	0	0	0	0	0	0	0	0
104	0.48	0.21	0.63	-0.126	0.9942	500	1	1.26	0	0	0	0	0	0	0	0	0	0	0	0
104	0.68	0.31	1.6	-0.32	0.9942	500	1	3.2	0	0	0	0	0	0	0	0	0	0	0	0
1402	0.36	0.16	0.5	-0.1	0.9874	500	1	1	0	0	0	0	0	0	0	0	0	0	0	0
1105	0.65	0.21	0.83	-0.166	1.001	500	1	1.66	0	0	0	0	0	0	0	0	0	0	0	0
104	0.86	0.39	1.26	-0.252	0.9942	500	1	2.52	0	0	0	0	0	0	0	0	0	0	0	0
1102	0.58	0.23	0.79	-0.158	0.9936	500	1	1.58	0	0	0	0	0	0	0	0	0	0	0	0
1105	0.74	0.23	0.945	-0.189	1.001	500	1	1.89	0	0	0	0	0	0	0	0	0	0	0	0
1103	0.71	0.25	0.945	-0.189	0.9924	500	1	1.89	0	0	0	0	0	0	0	0	0	0	0	0
1104	1.31	0.39	1.6	-0.32	1.0069	500	1	3.2	0	0	0	0	0	0	0	0	0	0	0	0
705	0.73	0.26	0.945	-0.189	1.0005	500	1	1.89	0	0	0	0	0	0	0	0	0	0	0	0
1401	0.24	0.11	4	-0.8	0.9836	500	1	8	0	0	0	0	0	0	0	0	0	0	0	0
1402	0.36	0.16	0.5	-0.1	0.9874	500	1	1	0	0	0	0	0	0	0	0	0	0	0	0
104	0.89	0.4	1.315	-0.263	0.9942	500	1	2.63	0	0	0	0	0	0	0	0	0	0	0	0
101	0.4	0.17	0.5	-0.1	0.9895	500	1	1	0	0	0	0	0	0	0	0	0	0	0	0
104	0.76	0.34	4.5	-0.9	0.9942	500	1	9	0	0	0	0	0	0	0	0	0	0	0	0
903	0.59	0.26	0.815	-0.163	0.9978	500	1	1.63	0	0	0	0	0	0	0	0	0	0	0	0
108	0.93	0.39	1.875	-0.375	0.9927	500	1	3.75	0	0	0	0	0	0	0	0	0	0	0	0
104	0.75	0.34	2	-0.4	0.9942	500	1	4	0	0	0	0	0	0	0	0	0	0	0	0
1002	0.49	0.22	2.4	-0.48	1.0053	500	1	4.8	0	0	0	0	0	0	0	0	0	0	0	0
1402	0.37	0.17	0.515	-0.103	0.9874	500	1	1.03	0	0	0	0	0	0	0	0	0	0	0	0
104	0.21	0.08	1.25	-0.25	0.9942	500	1	2.5	0	0	0	0	0	0	0	0	0	0	0	0
105	8.3	2.63	10.5	-2.1	0.9898	500	1	21	0	0	0	0	0	0	0	0	0	0	0	0
501	0.65	0.3	0.875	-0.175	1.009	500	1	1.75	0	0	0	0	0	0	0	0	0	0	0	0
501	0.17	0.08	2.4	-0.48	1.009	500	1	4.8	0	0	0	0	0	0	0	0	0	0	0	0
1404	35.28	9.02	96	-19.2	0.9999	500	1	192	0	0	0	0	0	0	0	0	0	0	0	0
1103	0.47	0.18	0.63	-0.126	0.9924	500	1	1.26	0	0	0	0	0	0	0	0	0	0	0	0
101	13.78	4.64	270	-54	0.9895	500	1	540	0	0	0	0	0	0	0	0	0	0	0	0
101	1.76	0.78	33	-6.6	0.9895	500	1	66	0	0	0	0	0	0	0	0	0	0	0	0
101	0.14	0.05	12	-2.4	0.9895	500	1	24	0	0	0	0	0	0	0	0	0	0	0	0
105	8.3	2.63	10.5	-2.1	0.9898	500	1	21	0	0	0	0	0	0	0	0	0	0	0	0
104	0.12	0.04	2.5	-0.5	0.9942	500	1	5	0	0	0	0	0	0	0	0	0	0	0	0
104	0.3	0.12	2.625	-0.525	0.9942	500	1	5.25	0	0	0	0	0	0	0	0	0	0	0	0
602	0.05	0.02	0.5	-0.1	1.0025	500	1	1	0	0	0	0	0	0	0	0	0	0	0	0
501	0.92	0.42	1.25	-0.25	1.009	500	1	2.5	0	0	0	0	0	0	0	0	0	0	0	0
1106	1.35	0.35	1.6	-0.32	1.0074	500	1	3.2	0	0	0	0	0	0	0	0	0	0	0	0
1104	0.48	0.18	0.63	-0.126	1.0069	500	1	1.26	0	0	0	0	0	0	0	0	0	0	0	0
501	0.08	0.03	0.65	-0.13	1.009	500	1	1.3	0	0	0	0	0	0	0	0	0	0	0	0
1108	0.82	0.23	1	-0.2	1.0079	500	1	2	0	0	0	0	0	0	0	0	0	0	0	0
1001	0.71	0.29	0.945	-0.189	1.0048	500	1	1.89	0	0	0	0	0	0	0	0	0	0	0	0
108	3.27	1.1	4	-0.8	0.9927	500	1	8	0	0	0	0	0	0	0	0	0	0	0	0
1101	0.75	0.31	1.03	-0.206	0.9981	500	1	2.06	0	0	0	0	0	0	0	0	0	0	0	0
1101	7.27	2.26	45	-9	0.9981	500	1	90	0	0	0	0	0	0	0	0	0	0	0	0
1101	0.46	0.2	0.63	-0.126	0.9981	500	1	1.26	0	0	0	0	0	0	0	0	0	0	0	0
1106	0.39	0.12	0.5	-0.1	1.0074	500	1	1	0	0	0	0	0	0	0	0	0	0	0	0
105	12.27	3.72	15	-3	0.9898	500	1	30	0	0	0	0	0	0	0	0	0	0	0	0
1105	0.24	0.09	0.325	-0.065	1.001	500	1	0.65	0	0	0	0	0	0	0	0	0	0	0	0
105	0.47	0.21	0.63	-0.126	0.9898	500	1	1.26	0	0	0	0	0	0	0	0	0	0	0	0
501	0.56	0.26	0.75	-0.15	1.009	500	1	1.5	0	0	0	0	0	0	0	0	0	0	0	0
1101	2.54	0.88	4.45	-0.89	0.9981	500	1	8.9	0	0	0	0	0	0	0	0	0	0	0	0
1102	0.75	0.28	1.3	-0.26	0.9936	500	1	2.6	0	0	0	0	0	0	0	0	0	0	0	0
1106	0.47	0.14	0.6	-0.12	1.0074	500	1	1.2	0	0	0	0	0	0	0	0	0	0	0	0
501	0.92	0.42	1.25	-0.25	1.009	500	1	2.5	0	0	0	0	0	0	0	0	0	0	0	0
1102	0.43	0.17	0.6	-0.12	0.9936	500	1	1.2	0	0	0	0	0	0	0	0	0	0	0	0
1108	0.77	0.22	0.945	-0.189	1.0079	500	1	1.89	0	0	0	0	0	0	0	0	0	0	0	0
1105	0.49	0.17	0.635	-0.127	1.001	500	1	1.27	0	0	0	0	0	0	0	0	0	0	0	0
1105	0.48	0.16	0.63	-0.126	1.001	500	1	1.26	0	0	0	0	0	0	0	0	0	0	0	0
1105	0.48	0.16	0.63	-0.126	1.001	500	1	1.26	0	0	0	0	0	0	0	0	0	0	0	0
104	0.17	0.06	0.8	-0.16	0.9942	500	1	1.6	0	0	0	0	0	0	0	0	0	0	0	0
1401	0.53	0.23	0.74	-0.148	0.9836	500	1	1.48	0	0	0	0	0	0	0	0	0	0	0	0
1401	5.18	1.63	18.83	-3.766	0.9836	500	1	37.66	0	0	0	0	0	0	0	0	0	0	0	0
1108	0.67	0.2	0.83	-0.166	1.0079	500	1	1.66	0	0	0	0	0	0	0	0	0	0	0	0
105	0.86	0.38	2.5	-0.5	0.9898	500	1	5	0	0	0	0	0	0	0	0	0	0	0	0
105	1.25	0.53	4.5	-0.9	0.9898	500	1	9	0	0	0	0	0	0	0	0	0	0	0	0
1404	0.18	0.08	1.2	-0.24	0.9999	500	1	2.4	0	0	0	0	0	0	0	0	0	0	0	0
1103	0.71	0.25	0.945	-0.189	0.9924	500	1	1.89	0	0	0	0	0	0	0	0	0	0	0	0
408	0.05	0.02	0.35	-0.07	0.9947	500	1	0.7	0	0	0	0	0	0	0	0	0	0	0	0
1104	0.45	0.17	0.6	-0.12	1.0069	500	1	1.2	0	0	0	0	0	0	0	0	0	0	0	0
1401	0.86	0.36	1.2	-0.24	0.9836	500	1	2.4	0	0	0	0	0	0	0	0	0	0	0	0
...
];

%% branch data
mpc.branch = [
101	102	0.00486	0.0504	0.0023	3500	0	0	0	0	1	-360	360
102	103	0.00108	0.0112	0.00051	1500	0	0	0	0	1	-360	360
101	104	0.0054	0.056	0.00256	2500	0	0	0	0	1	-360	360
104	201	0.00567	0.0588	0.00269	4000	0	0	0	0	1	-360	360
102	402	0.00756	0.0784	0.00358	3000	0	0	0	0	1	-360	360
103	402	0.00702	0.0728	0.00333	1500	0	0	0	0	1	-360	360
103	401	0.00594	0.0616	0.00282	1500	0	0	0	0	1	-360	360
103	201	0.04132	0.30992	0.0124	1500	0	0	0	0	1	-360	360
201	402	0.0081	0.084	0.00384	1500	0	0	0	0	1	-360	360
105	101	0.0054	0.056	0.00256	3000	0	0	0	0	1	-360	360
105	103	0.01134	0.1176	0.00538	3000	0	0	0	0	1	-360	360
401	403	0.00297	0.0308	0.00141	1500	0	0	0	0	1	-360	360
402	403	0.00378	0.0392	0.00179	3000	0	0	0	0	1	-360	360
402	404	0.00243	0.0252	0.00115	1500	0	0	0	0	1	-360	360
403	404	0.00324	0.0336	0.00154	1500	0	0	0	0	1	-360	360
402	501	0.00918	0.0952	0.00435	1500	0	0	0	0	1	-360	360
403	501	0.0108	0.112	0.00512	1500	0	0	0	0	1	-360	360
404	501	0.0081	0.084	0.00384	1500	0	0	0	0	1	-360	360
502	501	0.00108	0.0112	0.00051	3000	0	0	0	0	1	-360	360
501	601	0.0027	0.028	0.00128	1500	0	0	0	0	1	-360	360
601	1201	0.00675	0.07	0.0032	1500	0	0	0	0	1	-360	360
601	802	0.01242	0.1288	0.00589	1500	0	0	0	0	1	-360	360
1201	802	0.00972	0.1008	0.00461	1500	0	0	0	0	1	-360	360
402	801	0.01188	0.1232	0.00563	3000	0	0	0	0	1	-360	360
801	802	0.0027	0.028	0.00128	3000	0	0	0	0	1	-360	360
801	1301	0.00405	0.042	0.00192	1500	0	0	0	0	1	-360	360
302	301	0.00216	0.0224	0.00102	3000	0	0	0	0	1	-360	360
103	301	0.0108	0.112	0.00512	3000	0	0	0	0	1	-360	360
301	1301	0.00756	0.0784	0.00358	1500	0	0	0	0	1	-360	360
301	901	0.01728	0.1792	0.00819	3000	0	0	0	0	1	-360	360
1402	1401	0.00648	0.0672	0.00307	1500	0	0	0	0	1	-360	360
1401	702	0.00756	0.0784	0.00358	1500	0	0	0	0	1	-360	360
703	704	0.00081	0.0084	0.00038	3000	0	0	0	0	1	-360	360
703	701	0.00324	0.0336	0.00154	1500	0	0	0	0	1	-360	360
701	301	0.00405	0.042	0.00192	1500	0	0	0	0	1	-360	360
701	702	0.00351	0.0364	0.00166	1500	0	0	0	0	1	-360	360
702	703	0.00216	0.0224	0.00102	3000	0	0	0	0	1	-360	360
703	1101	0.00594	0.0616	0.00282	3000	0	0	0	0	1	-360	360
1101	1001	0.0054	0.056	0.00256	3000	0	0	0	0	1	-360	360
704	1102	0.00567	0.0588	0.00269	3000	0	0	0	0	1	-360	360
1102	1103	0.0027	0.028	0.00128	3000	0	0	0	0	1	-360	360
1501	702	0.01944	0.2016	0.00922	3000	0	0	0	0	1	-360	360
1501	1402	0.00356	0.03696	0.00169	1500	0	0	0	0	1	-360	360
1501	103	0.0135	0.14	0.0064	1500	0	0	0	0	1	-360	360
1502	103	0.00486	0.0504	0.0023	1500	0	0	0	0	1	-360	360
1502	702	0.01188	0.1232	0.00563	1500	0	0	0	0	1	-360	360
1503	501	0.00135	0.014	0.00064	4500	0	0	0	0	1	-360	360
1503	402	0.0081	0.084	0.00384	4500	0	0	0	0	1	-360	360
1504	501	0.00189	0.0196	0.0009	3000	0	0	0	0	1	-360	360
1504	502	0.00054	0.0056	0.00026	3000	0	0	0	0	1	-360	360
1505	601	0.00216	0.0224	0.00102	3000	0	0	0	0	1	-360	360
1505	601	0.00216	0.0224	0.00102	1500	0	0	0	0	1	-360	360
105	106	0.03926	0.29442	0.01178	1000	0	0	1	0	1	-360	360
105	107	0.04132	0.30992	0.0124	1000	0	0	1	0	1	-360	360
105	108	0.02686	0.20145	0.00806	1000	0	0	1	0	1	-360	360
105	109	0.0124	0.09298	0.00372	1000	0	0	1	0	1	-360	360
201	203	0.03719	0.27893	0.01116	1000	0	0	1	0	1	-360	360
203	204	0.02479	0.18595	0.00744	1000	0	0	0	0	1	-360	360
203	202	0.02066	0.15496	0.0062	1000	0	0	0	0	1	-360	360
402	204	0.01653	0.12397	0.00496	1000	0	0	1	0	1	-360	360
701	303	0.02066	0.15496	0.0062	1000	0	0	1	0	1	-360	360
301	304	0.02479	0.18595	0.00744	1000	0	0	1	0	1	-360	360
304	303	0.0186	0.13946	0.00558	1000	0	0	0	0	1	-360	360
403	405	0.03512	0.26343	0.01054	1000	0	0	1	0	1	-360	360
403	407	0.03719	0.27893	0.01116	1000	0	0	1	0	1	-360	360
401	407	0.02479	0.18595	0.00744	1000	0	0	1	0	1	-360	360
402	408	0.04132	0.30992	0.0124	1000	0	0	1	0	1	-360	360
404	408	0.02686	0.20145	0.00806	1000	0	0	1	0	1	-360	360
601	602	0.03099	0.23244	0.0093	1500	0	0	1	0	1	-360	360
703	705	0.03719	0.27893	0.01116	1000	0	0	1	0	1	-360	360
705	706	0.02479	0.18595	0.00744	1000	0	0	0	0	1	-360	360
801	803	0.02273	0.17045	0.00682	1000	0	0	1	0	1	-360	360
801	804	0.02066	0.15496	0.0062	1000	0	0	1	0	1	-360	360
802	804	0.01446	0.10847	0.00434	1000	0	0	1	0	1	-360	360
803	804	0.03306	0.24793	0.00992	1000	0	0	0	0	1	-360	360
901	902	0.02479	0.18595	0.00744	1000	0	0	1	0	1	-360	360
901	904	0.03099	0.23244	0.0093	1000	0	0	1	0	1	-360	360
1101	903	0.02479	0.18595	0.00744	1000	0	0	1	0	1	-360	360
1001	1002	0.04132	0.30992	0.0124	1000	0	0	1	0	1	-360	360
1103	1104	0.03719	0.27893	0.01116	1000	0	0	1	0	1	-360	360
1103	1105	0.0124	0.09298	0.00372	1000	0	0	1	0	1	-360	360
1103	1105	0.0124	0.09298	0.00372	1000	0	0	1	0	1	-360	360
1105	1108	0.02066	0.15496	0.0062	1000	0	0	0	0	1	-360	360
1105	1107	0.02479	0.18595	0.00744	1000	0	0	0	0	1	-360	360
1107	1106	0.01446	0.10847	0.00434	1000	0	0	0	0	1	-360	360
1301	1302	0.02066	0.15496	0.0062	1000	0	0	1	0	1	-360	360
301	1302	0.05165	0.3874	0.0155	1000	0	0	1	0	1	-360	360
1301	1303	0.03388	0.25413	0.01017	1000	0	0	1	0	1	-360	360
1302	1303	0.02479	0.18595	0.00744	1000	0	0	0	0	1	-360	360
901	1303	0.05372	0.40289	0.01612	1000	0	0	1	0	1	-360	360
1301	405	0.04545	0.34091	0.01364	1000	0	0	1	0	1	-360	360
1102	706	0.04132	0.30992	0.0124	1000	0	0	1	0	1	-360	360
101	1403	0.02479	0.18595	0.00744	1000	0	0	1	0	1	-360	360
302	406	0.02479	0.18595	0.00744	1000	0	0	1	0	1	-360	360
301	406	0.02479	0.18595	0.00744	1000	0	0	1	0	1	-360	360
405	406	0.01033	0.07748	0.0031	1000	0	0	0	0	1	-360	360
1001	904	0.03306	0.24793	0.00992	1000	0	0	1	0	1	-360	360
106	107	0.02479	0.18595	0.00744	1000	0	0	0	0	1	-360	360
108	109	0.03595	0.26963	0.01079	1000	0	0	0	0	1	-360	360
201	202	0.05248	0.3936	0.01574	1000	0	0	1	0	1	-360	360
1403	109	0.04008	0.30062	0.01202	1000	0	0	0	0	1	-360	360
1404	407	0.04545	0.34091	0.01364	1000	0	0	0	0	1	-360	360
602	408	0.02686	0.20145	0.00806	1000	0	0	0	0	1	-360	360
706	1104	0.0281	0.21074	0.00843	1000	0	0	0	0	1	-360	360
1108	1106	0.0314	0.23554	0.00942	1000	0	0	0	0	1	-360	360
703	903	0.05702	0.42769	0.01711	1000	0	0	1	0	1	-360	360
1002	904	0.04711	0.35331	0.01413	1000	0	0	0	0	1	-360	360
902	1303	0.05124	0.3843	0.01537	1000	0	0	0	0	1	-360	360
401	1404	0.05785	0.43388	0.01736	1000	0	0	1	0	1	-360	360
302	1404	0.05165	0.3874	0.0155	1000	0	0	1	0	1	-360	360
    ];

%%-----  OPF Data  -----%%
%% generator cost data
mpc.gencost = [
2	26665.7	26665.7	3	0.0054	35.5	1797
2	26665.7	26665.7	3	0.0054	35.5	1797
2	8007.4	8007.4	3	0.0049	32.5	1643.1
2	8007.4	8007.4	3	0.0049	32.5	1643.1
2	8897.2	8897.2	3	0.0049	32.5	1643.1
2	8897.2	8897.2	3	0.0049	32.5	1643.1
2	19864.3	19864.3	3	0.0027	32.1	2668.4
2	19864.3	19864.3	3	0.0027	32.1	2668.4
2	6621.4	6621.4	3	0.0049	32.5	1643.1
2	6621.4	6621.4	3	0.0049	32.5	1643.1
2	4092.3	4092.3	3	0.0049	32.5	1643.1
2	4092.3	4092.3	3	0.0049	32.5	1643.1
2	99321.4	99321.4	3	0.0007	32.3	3275.4
2	99321.4	99321.4	3	0.0007	32.3	3275.4
2	26665.7	26665.7	3	0.0054	35.5	1797
2	26665.7	26665.7	3	0.0054	35.5	1797
2	92700	92700	3	0.0028	33.1	2751.6
2	95348.6	95348.6	3	0.0028	33.1	2751.6
2	70054.7	70054.7	3	0.0027	32.1	2668.4
2	83959.7	83959.7	3	0.0027	32.1	2668.4
2	26665.7	26665.7	3	0.0054	35.5	1797
2	26665.7	26665.7	3	0.0054	35.5	1797
2	26665.7	26665.7	3	0.0054	35.5	1797
2	26665.7	26665.7	3	0.0054	35.5	1797
2	26665.7	26665.7	3	0.0054	35.5	1797
2	2965.7	2965.7	3	0.0049	32.5	1643.1
2	2965.7	2965.7	3	0.0049	32.5	1643.1
2	2965.7	2965.7	3	0.0049	32.5	1643.1
2	17777.1	17777.1	3	0.0054	35.5	1797
2	17777.1	17777.1	3	0.0054	35.5	1797
2	31411.4	31411.4	3	0.0027	32.1	2668.4
2	31411.4	31411.4	3	0.0027	32.1	2668.4
2	51900	51900	3	0.0049	32.5	1643.1
2	73214.3	73214.3	3	0.0027	32.1	2668.4
2	51900	51900	3	0.0049	32.5	1643.1
2	115885.7	115885.7	3	0.0007	32.3	3275.4
2	115885.7	115885.7	3	0.0007	32.3	3275.4
2	8897.2	8897.2	3	0.0049	32.5	1643.1
2	8897.2	8897.2	3	0.0049	32.5	1643.1
2	26665.7	26665.7	3	0.0054	35.5	1797
2	9193.7	9193.7	3	0.0049	32.5	1643.1
2	9193.7	9193.7	3	0.0049	32.5	1643.1
2	9193.7	9193.7	3	0.0049	32.5	1643.1
2	17794.3	17794.3	3	0.0049	32.5	1643.1
2	17794.3	17794.3	3	0.0049	32.5	1643.1
2	23725.7	23725.7	3	0.0049	32.5	1643.1
2	23725.7	23725.7	3	0.0049	32.5	1643.1
2	2372.6	2372.6	3	0.0049	32.5	1643.1
2	2965.7	2965.7	3	0.0049	32.5	1643.1
2	43885.7	43885.7	3	0.0027	32.1	2668.4
2	43885.7	43885.7	3	0.0027	32.1	2668.4
2	1779.4	1779.4	3	0.0049	32.5	1643.1
2	1779.4	1779.4	3	0.0049	32.5	1643.1
2	1779.4	1779.4	3	0.0049	32.5	1643.1
2	95348.6	95348.6	3	0.0007	32.3	3275.4
2	95348.6	95348.6	3	0.0007	32.3	3275.4
2	34431.4	34431.4	3	0.0027	32.1	2668.4
2	34431.4	34431.4	3	0.0027	32.1	2668.4
2	30458.6	30458.6	3	0.0028	33.1	2751.6
2	30458.6	30458.6	3	0.0028	33.1	2751.6
2	8897.2	8897.2	3	0.0049	32.5	1643.1
2	8897.2	8897.2	3	0.0049	32.5	1643.1
2	4745.2	4745.2	3	0.0049	32.5	1643.1
2	8007.4	8007.4	3	0.0049	32.5	1643.1
2	8007.4	8007.4	3	0.0049	32.5	1643.1
2	14785.7	14785.7	3	0.0049	32.5	1643.1
2	14785.7	14785.7	3	0.0049	32.5	1643.1
2	1779.4	1779.4	3	0.0049	32.5	1643.1
2	1779.4	1779.4	3	0.0049	32.5	1643.1
2	1945.5	1945.5	3	0.0049	32.5	1643.1
2	1779.4	1779.4	3	0.0049	32.5	1643.1
2	0	0	3	0	107.1	0
2	0	0	3	0	107.1	0
2	0	0	3	0	107.1	0
2	0	0	3	0	107.1	0
2	0	0	3	0	107.1	0
2	0	0	3	0	107.1	0
2	0	0	3	0	107.1	0
2	0	0	3	0	107.1	0
2	0	0	3	0	107.1	0
2	0	0	3	0	107.1	0
2	0	0	3	0	107.1	0
2	0	0	3	0	107.1	0
2	0	0	3	0	107.1	0
2	0	0	3	0	107.1	0
2	0	0	3	0	107.1	0
2	0	0	3	0	107.1	0
2	0	0	3	0	107.1	0
2	0	0	3	0	107.1	0
2	0	0	3	0	107.1	0
2	0	0	3	0	107.1	0
2	0	0	3	0	107.1	0
2	0	0	3	0	107.1	0
2	0	0	3	0	107.1	0
2	0	0	3	0	107.1	0
2	0	0	3	0	107.1	0
2	0	0	3	0	107.1	0
2	0	0	3	0	107.1	0
2	0	0	3	0	107.1	0
2	0	0	3	0	107.1	0
2	0	0	3	0	107.1	0
2	0	0	3	0	107.1	0
2	0	0	3	0	107.1	0
2	0	0	3	0	107.1	0
2	0	0	3	0	107.1	0
2	0	0	3	0	107.1	0
2	0	0	3	0	107.1	0
2	0	0	3	0	107.1	0
2	0	0	3	0	107.1	0
2	0	0	3	0	107.1	0
2	0	0	3	0	107.1	0
2	0	0	3	0	107.1	0
2	0	0	3	0	107.1	0
2	0	0	3	0	107.1	0
2	0	0	3	0	107.1	0
2	0	0	3	0	107.1	0
2	0	0	3	0	107.1	0
2	0	0	3	0	107.1	0
2	0	0	3	0	107.1	0
2	0	0	3	0	107.1	0
2	0	0	3	0	107.1	0
2	0	0	3	0	107.1	0
2	0	0	3	0	107.1	0
2	0	0	3	0	107.1	0
2	0	0	3	0	107.1	0
2	0	0	3	0	107.1	0
2	0	0	3	0	107.1	0
2	0	0	3	0	107.1	0
2	0	0	3	0	107.1	0
2	0	0	3	0	107.1	0
2	0	0	3	0	107.1	0
2	0	0	3	0	107.1	0
2	0	0	3	0	0	0
2	0	0	3	0	0	0
2	0	0	3	0	0	0
2	0	0	3	0	0	0
2	0	0	3	0	0	0
2	0	0	3	0	0	0
2	0	0	3	0	0	0
2	0	0	3	0	0	0
2	0	0	3	0	0	0
2	0	0	3	0	0	0
2	0	0	3	0	0	0
2	0	0	3	0	0	0
2	0	0	3	0	0	0
2	0	0	3	0	0	0
2	0	0	3	0	0	0
2	0	0	3	0	0	0
2	0	0	3	0	0	0
2	0	0	3	0	0	0
2	0	0	3	0	0	0
2	0	0	3	0	0	0
2	0	0	3	0	0	0
2	0	0	3	0	0	0
2	0	0	3	0	0	0
2	0	0	3	0	0	0
2	0	0	3	0	0	0
2	0	0	3	0	0	0
2	0	0	3	0	0	0
2	0	0	3	0	0	0
2	0	0	3	0	0	0
2	0	0	3	0	0	0
2	0	0	3	0	0	0
2	0	0	3	0	0	0
2	0	0	3	0	0	0
2	0	0	3	0	0	0
2	0	0	3	0	0	0
2	0	0	3	0	0	0
2	0	0	3	0	0	0
2	0	0	3	0	0	0
2	0	0	3	0	0	0
2	0	0	3	0	0	0
2	0	0	3	0	0	0
2	0	0	3	0	0	0
2	0	0	3	0	0	0
2	0	0	3	0	0	0
2	0	0	3	0	0	0
2	0	0	3	0	0	0
2	0	0	3	0	0	0
2	0	0	3	0	0	0
2	0	0	3	0	0	0
2	0	0	3	0	0	0
2	0	0	3	0	0	0
2	0	0	3	0	0	0
2	0	0	3	0	0	0
2	0	0	3	0	0	0
2	0	0	3	0	0	0
2	0	0	3	0	0	0
2	0	0	3	0	0	0
2	0	0	3	0	0	0
2	0	0	3	0	0	0
2	0	0	3	0	0	0
2	0	0	3	0	0	0
2	0	0	3	0	0	0
2	0	0	3	0	0	0
2	0	0	3	0	0	0
2	0	0	3	0	0	0
2	0	0	3	0	0	0
2	0	0	3	0	0	0
2	0	0	3	0	0	0
...
    ];

%%-----  DC Line Data  -----%%
%	fbus	tbus	status	Pf	Pt	Qf	Qt	Vf	Vt	Pmin	Pmax	QminF	QmaxF	QminT	QmaxT	loss0	loss1
mpc.dcline = [
	1502 704	1	0	0	0	0	1	1	0	8000	-Inf	Inf	-Inf	Inf	0	0
    105 701	1	0	0	0	0	1	1	0	3200	-Inf	Inf	-Inf	Inf	0	0
];